instances/data_GOC/Phase_0_Modified_RTS96/scenario_10/powersystem.raw
 0,  100.000000
rts96_spring_wday.raw / File written by to_psse.gms
5 / 19 / 2015
101, ' 101 ',138,2,1,1,1,1.00,0.00,1.1,0.9,1.1,0.9
102, ' 102 ',138,2,1,1,1,1.00,0.00,1.1,0.9,1.1,0.9
103, ' 103 ',138,1,1,1,1,1.00,0.00,1.1,0.9,1.1,0.9
104, ' 104 ',138,1,1,1,1,1.00,0.00,1.1,0.9,1.1,0.9
105, ' 105 ',138,1,1,1,1,1.00,0.00,1.1,0.9,1.1,0.9
106, ' 106 ',138,1,1,1,1,1.00,0.00,1.1,0.9,1.1,0.9
107, ' 107 ',138,2,1,1,1,1.00,0.00,1.1,0.9,1.1,0.9
108, ' 108 ',138,1,1,1,1,1.00,0.00,1.1,0.9,1.1,0.9
109, ' 109 ',138,1,1,1,1,1.00,0.00,1.1,0.9,1.1,0.9
110, ' 110 ',138,1,1,1,1,1.00,0.00,1.1,0.9,1.1,0.9
111, ' 111 ',230,1,1,1,1,1.00,0.00,1.1,0.9,1.1,0.9
112, ' 112 ',230,1,1,1,1,1.00,0.00,1.1,0.9,1.1,0.9
113, ' 113 ',230,3,1,1,1,1.00,0.00,1.1,0.9,1.1,0.9
114, ' 114 ',230,2,1,1,1,1.00,0.00,1.1,0.9,1.1,0.9
115, ' 115 ',230,2,1,1,1,1.00,0.00,1.1,0.9,1.1,0.9
116, ' 116 ',230,2,1,1,1,1.00,0.00,1.1,0.9,1.1,0.9
117, ' 117 ',230,1,1,1,1,1.00,0.00,1.1,0.9,1.1,0.9
118, ' 118 ',230,2,1,1,1,1.00,0.00,1.1,0.9,1.1,0.9
119, ' 119 ',230,1,1,1,1,1.00,0.00,1.1,0.9,1.1,0.9
120, ' 120 ',230,1,1,1,1,1.00,0.00,1.1,0.9,1.1,0.9
121, ' 121 ',230,2,1,1,1,1.00,0.00,1.1,0.9,1.1,0.9
122, ' 122 ',230,2,1,1,1,1.00,0.00,1.1,0.9,1.1,0.9
123, ' 123 ',230,2,1,1,1,1.00,0.00,1.1,0.9,1.1,0.9
124, ' 124 ',230,1,1,1,1,1.00,0.00,1.1,0.9,1.1,0.9
201, ' 201 ',138,2,1,1,1,1.00,0.00,1.1,0.9,1.1,0.9
202, ' 202 ',138,2,1,1,1,1.00,0.00,1.1,0.9,1.1,0.9
203, ' 203 ',138,1,1,1,1,1.00,0.00,1.1,0.9,1.1,0.9
204, ' 204 ',138,1,1,1,1,1.00,0.00,1.1,0.9,1.1,0.9
205, ' 205 ',138,1,1,1,1,1.00,0.00,1.1,0.9,1.1,0.9
206, ' 206 ',138,1,1,1,1,1.00,0.00,1.1,0.9,1.1,0.9
207, ' 207 ',138,2,1,1,1,1.00,0.00,1.1,0.9,1.1,0.9
208, ' 208 ',138,1,1,1,1,1.00,0.00,1.1,0.9,1.1,0.9
209, ' 209 ',138,1,1,1,1,1.00,0.00,1.1,0.9,1.1,0.9
210, ' 210 ',138,1,1,1,1,1.00,0.00,1.1,0.9,1.1,0.9
211, ' 211 ',230,1,1,1,1,1.00,0.00,1.1,0.9,1.1,0.9
212, ' 212 ',230,1,1,1,1,1.00,0.00,1.1,0.9,1.1,0.9
213, ' 213 ',230,2,1,1,1,1.00,0.00,1.1,0.9,1.1,0.9
214, ' 214 ',230,2,1,1,1,1.00,0.00,1.1,0.9,1.1,0.9
215, ' 215 ',230,2,1,1,1,1.00,0.00,1.1,0.9,1.1,0.9
216, ' 216 ',230,2,1,1,1,1.00,0.00,1.1,0.9,1.1,0.9
217, ' 217 ',230,1,1,1,1,1.00,0.00,1.1,0.9,1.1,0.9
218, ' 218 ',230,2,1,1,1,1.00,0.00,1.1,0.9,1.1,0.9
219, ' 219 ',230,1,1,1,1,1.00,0.00,1.1,0.9,1.1,0.9
220, ' 220 ',230,1,1,1,1,1.00,0.00,1.1,0.9,1.1,0.9
221, ' 221 ',230,2,1,1,1,1.00,0.00,1.1,0.9,1.1,0.9
222, ' 222 ',230,2,1,1,1,1.00,0.00,1.1,0.9,1.1,0.9
223, ' 223 ',230,2,1,1,1,1.00,0.00,1.1,0.9,1.1,0.9
224, ' 224 ',230,1,1,1,1,1.00,0.00,1.1,0.9,1.1,0.9
301, ' 301 ',138,2,1,1,1,1.00,0.00,1.1,0.9,1.1,0.9
302, ' 302 ',138,2,1,1,1,1.00,0.00,1.1,0.9,1.1,0.9
303, ' 303 ',138,1,1,1,1,1.00,0.00,1.1,0.9,1.1,0.9
304, ' 304 ',138,1,1,1,1,1.00,0.00,1.1,0.9,1.1,0.9
305, ' 305 ',138,1,1,1,1,1.00,0.00,1.1,0.9,1.1,0.9
306, ' 306 ',138,1,1,1,1,1.00,0.00,1.1,0.9,1.1,0.9
307, ' 307 ',138,2,1,1,1,1.00,0.00,1.1,0.9,1.1,0.9
308, ' 308 ',138,1,1,1,1,1.00,0.00,1.1,0.9,1.1,0.9
309, ' 309 ',138,1,1,1,1,1.00,0.00,1.1,0.9,1.1,0.9
310, ' 310 ',138,1,1,1,1,1.00,0.00,1.1,0.9,1.1,0.9
311, ' 311 ',230,1,1,1,1,1.00,0.00,1.1,0.9,1.1,0.9
312, ' 312 ',230,1,1,1,1,1.00,0.00,1.1,0.9,1.1,0.9
313, ' 313 ',230,2,1,1,1,1.00,0.00,1.1,0.9,1.1,0.9
314, ' 314 ',230,2,1,1,1,1.00,0.00,1.1,0.9,1.1,0.9
315, ' 315 ',230,2,1,1,1,1.00,0.00,1.1,0.9,1.1,0.9
316, ' 316 ',230,2,1,1,1,1.00,0.00,1.1,0.9,1.1,0.9
317, ' 317 ',230,1,1,1,1,1.00,0.00,1.1,0.9,1.1,0.9
318, ' 318 ',230,2,1,1,1,1.00,0.00,1.1,0.9,1.1,0.9
319, ' 319 ',230,1,1,1,1,1.00,0.00,1.1,0.9,1.1,0.9
320, ' 320 ',230,1,1,1,1,1.00,0.00,1.1,0.9,1.1,0.9
321, ' 321 ',230,2,1,1,1,1.00,0.00,1.1,0.9,1.1,0.9
322, ' 322 ',230,2,1,1,1,1.00,0.00,1.1,0.9,1.1,0.9
323, ' 323 ',230,2,1,1,1,1.00,0.00,1.1,0.9,1.1,0.9
324, ' 324 ',230,1,1,1,1,1.00,0.00,1.1,0.9,1.1,0.9
325, ' 325 ',230,1,1,1,1,1.00,0.00,1.1,0.9,1.1,0.9
0 / END OF BUS DATA, BEGIN LOAD DATA
101, '1 ',1,11,11,81.99825533952992,13.604994412049464,0.0,0.0,0.0,0.0,1,1,0
102, '1 ',1,11,12,63.188332566000334,13.905607721214182,0.0,0.0,0.0,0.0,1,1,0
103, '1 ',1,11,11,162.1065909704268,18.450080040626084,0.0,0.0,0.0,0.0,1,1,0
104, '1 ',1,11,11,42.30635390593707,11.089649372405141,0.0,0.0,0.0,0.0,1,1,0
105, '1 ',1,11,11,55.51926466453099,9.423801513866522,0.0,0.0,0.0,0.0,1,1,0
106, '1 ',1,11,12,66.13266304509938,25.14809118775539,0.0,0.0,0.0,0.0,1,1,0
107, '1 ',1,11,12,92.98030009682988,18.803014002009295,0.0,0.0,0.0,0.0,1,1,0
108, '1 ',1,11,12,89.86483388682855,30.573431531002743,0.0,0.0,0.0,0.0,1,1,0
109, '1 ',1,11,13,154.81035523683417,22.536128479325583,0.0,0.0,0.0,0.0,1,1,0
110, '1 ',1,11,13,154.68333174915608,34.869866124406464,0.0,0.0,0.0,0.0,1,1,0
111, '1 ',1,11,13,0.0,0.0,0.0,0.0,0.0,0.0,1,1,0
112, '1 ',1,11,13,0.0,0.0,0.0,0.0,0.0,0.0,1,1,0
113, '1 ',1,12,14,156.2986239812812,47.254426272571834,0.0,0.0,0.0,0.0,1,1,0
114, '1 ',1,12,16,141.39794179392206,24.058800260668807,0.0,0.0,0.0,0.0,1,1,0
115, '1 ',1,12,16,212.33268917066138,56.85814969711303,0.0,0.0,0.0,0.0,1,1,0
116, '1 ',1,12,16,72.1034527352359,11.720935789204203,0.0,0.0,0.0,0.0,1,1,0
117, '1 ',1,12,17,0.0,0.0,0.0,0.0,0.0,0.0,1,1,0
118, '1 ',1,12,17,295.26791152087986,50.60381604737453,0.0,0.0,0.0,0.0,1,1,0
119, '1 ',1,12,15,137.69064944386108,29.755147073089887,0.0,0.0,0.0,0.0,1,1,0
120, '1 ',1,12,15,110.75876214650272,22.364401081396828,0.0,0.0,0.0,0.0,1,1,0
121, '1 ',1,12,17,0.0,0.0,0.0,0.0,0.0,0.0,1,1,0
122, '1 ',1,12,17,0.0,0.0,0.0,0.0,0.0,0.0,1,1,0
123, '1 ',1,12,15,0.0,0.0,0.0,0.0,0.0,0.0,1,1,0
124, '1 ',1,12,16,0.0,0.0,0.0,0.0,0.0,0.0,1,1,0
201, '1 ',1,21,21,93.6306019411834,19.631826448870733,0.0,0.0,0.0,0.0,1,1,0
202, '1 ',1,21,22,63.44458690721789,17.13998173387628,0.0,0.0,0.0,0.0,1,1,0
203, '1 ',1,21,21,89.12908759547118,26.93090616969201,0.0,0.0,0.0,0.0,1,1,0
204, '1 ',1,21,21,40.211339522034486,12.135556432565906,0.0,0.0,0.0,0.0,1,1,0
205, '1 ',1,21,21,38.818543055125325,7.643970723565109,0.0,0.0,0.0,0.0,1,1,0
206, '1 ',1,21,22,80.64594334106818,20.1000867063649,0.0,0.0,0.0,0.0,1,1,0
207, '1 ',1,21,22,109.76590212206939,19.50797586508677,0.0,0.0,0.0,0.0,1,1,0
208, '1 ',1,21,22,91.79672406846032,20.524439543564103,0.0,0.0,0.0,0.0,1,1,0
209, '1 ',1,21,23,151.70571864152794,24.422568064740858,0.0,0.0,0.0,0.0,1,1,0
210, '1 ',1,21,23,120.26126352898798,22.57799436264485,0.0,0.0,0.0,0.0,1,1,0
211, '1 ',1,21,23,0.0,0.0,0.0,0.0,0.0,0.0,1,1,0
212, '1 ',1,21,23,0.0,0.0,0.0,0.0,0.0,0.0,1,1,0
213, '1 ',1,22,24,225.61868057744647,40.347305860923136,0.0,0.0,0.0,0.0,1,1,0
214, '1 ',1,22,26,110.03458849602845,28.42322904209099,0.0,0.0,0.0,0.0,1,1,0
215, '1 ',1,22,26,241.08725219913293,43.40873401916027,0.0,0.0,0.0,0.0,1,1,0
216, '1 ',1,22,26,75.30601245978846,12.033668357611633,0.0,0.0,0.0,0.0,1,1,0
217, '1 ',1,22,27,0.0,0.0,0.0,0.0,0.0,0.0,1,1,0
218, '1 ',1,22,27,272.56825876945084,51.82936369795371,0.0,0.0,0.0,0.0,1,1,0
219, '1 ',1,22,25,142.2673855461901,19.950939381423495,0.0,0.0,0.0,0.0,1,1,0
220, '1 ',1,22,25,110.09155557017327,20.790169174221532,0.0,0.0,0.0,0.0,1,1,0
221, '1 ',1,22,27,0.0,0.0,0.0,0.0,0.0,0.0,1,1,0
222, '1 ',1,22,27,0.0,0.0,0.0,0.0,0.0,0.0,1,1,0
223, '1 ',1,22,25,0.0,0.0,0.0,0.0,0.0,0.0,1,1,0
224, '1 ',1,22,26,0.0,0.0,0.0,0.0,0.0,0.0,1,1,0
301, '1 ',1,31,31,54.09123480080254,16.250486840838565,0.0,0.0,0.0,0.0,1,1,0
302, '1 ',1,31,32,54.615508457594366,10.855762160159648,0.0,0.0,0.0,0.0,1,1,0
303, '1 ',1,31,31,104.34473636267612,24.671474153080766,0.0,0.0,0.0,0.0,1,1,0
304, '1 ',1,31,31,65.86223502702684,13.436686802992131,0.0,0.0,0.0,0.0,1,1,0
305, '1 ',1,31,31,41.771842557799815,11.69502952930117,0.0,0.0,0.0,0.0,1,1,0
306, '1 ',1,31,32,91.24429002862014,15.515650081489605,0.0,0.0,0.0,0.0,1,1,0
307, '1 ',1,31,32,98.61064512269805,18.114026163885136,0.0,0.0,0.0,0.0,1,1,0
308, '1 ',1,31,32,151.4210617468181,17.64039168306207,0.0,0.0,0.0,0.0,1,1,0
309, '1 ',1,31,33,157.37262358432406,27.437965275454335,0.0,0.0,0.0,0.0,1,1,0
310, '1 ',1,31,33,100.17523662714217,22.800431394316256,0.0,0.0,0.0,0.0,1,1,0
311, '1 ',1,31,33,0.0,0.0,0.0,0.0,0.0,0.0,1,1,0
312, '1 ',1,31,33,0.0,0.0,0.0,0.0,0.0,0.0,1,1,0
313, '1 ',1,32,34,231.7685419466221,34.96293086446942,0.0,0.0,0.0,0.0,1,1,0
314, '1 ',1,32,36,138.731960392181,29.83975825180742,0.0,0.0,0.0,0.0,1,1,0
315, '1 ',1,32,36,202.51925451069113,33.213153971976034,0.0,0.0,0.0,0.0,1,1,0
316, '1 ',1,32,36,69.39634407194798,16.617655833746305,0.0,0.0,0.0,0.0,1,1,0
317, '1 ',1,32,37,0.0,0.0,0.0,0.0,0.0,0.0,1,1,0
318, '1 ',1,32,37,276.5926288038335,50.62966174484454,0.0,0.0,0.0,0.0,1,1,0
319, '1 ',1,32,35,116.97220283866511,25.62512985652154,0.0,0.0,0.0,0.0,1,1,0
320, '1 ',1,32,35,100.30887234597802,19.362040534668044,0.0,0.0,0.0,0.0,1,1,0
321, '1 ',1,32,37,0.0,0.0,0.0,0.0,0.0,0.0,1,1,0
322, '1 ',1,32,37,0.0,0.0,0.0,0.0,0.0,0.0,1,1,0
323, '1 ',1,32,35,0.0,0.0,0.0,0.0,0.0,0.0,1,1,0
324, '1 ',1,32,36,0.0,0.0,0.0,0.0,0.0,0.0,1,1,0
325, '1 ',1,32,35,0.0,0.0,0.0,0.0,0.0,0.0,1,1,0
0 / END OF LOAD DATA, BEGIN FIXED SHUNT DATA
0 / END OF FIXED SHUNT DATA, BEGIN GENERATOR DATA
101,1,10,0,11.159910306800157,1.345081068109721,1.035,0,24,0,1,0,0,1,1,100,25.974183081649244,20.98217681325972,1,1,0,1
101,2,10,0,8.418460010550916,0.2999026905745268,1.035,0,24,0,1,0,0,1,1,100,15.437110546976328,11.303956473292784,1,1,0,1
101,3,76,14.1,30.444984506350007,-10.225307729560878,1.035,0,89,0,1,0,0,1,1,100,94.88673571646213,19.476676215678438,1,1,0,1
101,4,76,14.1,37.014952483121306,-11.903865982312709,1.035,0,89,0,1,0,0,1,1,100,76.89784056749194,28.345915404669938,1,1,0,1
102,5,10,0,7.248149481602013,-2.7315402422100306,1.035,0,24,0,1,0,0,1,1,100,17.658071437850595,13.687904824763537,1,1,0,1
102,6,10,0,9.317510217428207,-3.353614377323538,1.035,0,24,0,1,0,0,1,1,100,19.711102513596416,15.65316905652173,1,1,0,1
102,7,76,7,24.353038650937375,-46.20283278846182,1.035,0,89,0,1,0,0,1,1,100,59.2874681038782,0.11772352468221925,1,1,0,1
102,8,76,7,21.807412672787905,-43.12342001288198,1.035,0,89,0,1,0,0,1,1,100,89.54773306827992,12.834591080509128,1,1,0,1
107,9,80,17.2,42.39480306208134,-13.099490395747125,1.025,0,118,0,1,0,0,1,1,100,110.35582449287176,21.239461209625006,1,1,0,1
107,10,80,17.2,46.919663208536804,-2.393246289342642,1.025,0,118,0,1,0,0,1,1,100,70.5263645760715,10.389339912217118,1,1,0,1
107,11,80,17.2,75.84045697934926,9.816267482936382,1.025,0,118,0,1,0,0,1,1,100,81.06442251242697,13.919295941013843,1,1,0,1
113,12,95.1,40.7,84.06772987544537,9.727738603949547,1.02,0,232,0,1,0,0,1,1,100,246.87148930579426,118.60791623586789,1,1,0,1
113,13,95.1,40.7,82.89843920618296,14.50026435032487,1.02,0,232,0,1,0,0,1,1,100,192.40310136112384,52.86438384926413,1,1,0,1
113,14,95.1,40.7,103.75567351281643,1.9064440727233887,1.02,0,232,0,1,0,0,1,1,100,146.29665277469903,1.4498330905264822,1,1,0,1
114,15,0,13.7,246.71643400564793,1.7151542450301633,0.98,0,100,0,1,0,0,1,1,100,0.0,0.0,1,1,0,1
115,16,12,0,6.84878730084747,-0.11857003597542626,1.014,0,14,0,1,0,0,1,1,100,13.048345602862538,5.971261005811395,1,1,0,1
115,17,12,0,4.722632128838449,-2.1532041762024177,1.014,0,14,0,1,0,0,1,1,100,14.914662417769433,7.028178969472648,1,1,0,1
115,18,12,0,5.6662572953850034,-1.200672164652497,1.014,0,14,0,1,0,0,1,1,100,11.736919624172153,1.761834490410985,1,1,0,1
115,19,12,0,6.718655416835099,1.463760142866522,1.014,0,14,0,1,0,0,1,1,100,9.711646965891122,7.2743821090806176,1,1,0,1
115,20,12,0,6.6816364279948175,2.3016187369823458,1.014,0,14,0,1,0,0,1,1,100,15.02721714992076,6.886272316463291,1,1,0,1
115,21,155,0.05,96.68809203058481,-15.388463964685798,1.014,0,182,0,1,0,0,1,1,100,125.01201357576065,50.717759733588906,1,1,0,1
116,22,155,25.22,64.17002051696181,-62.41158002661541,1.017,0,182,0,1,0,0,1,1,100,166.20659754425287,86.1384770580451,1,1,0,1
118,23,400,137.4,151.80198132060468,-129.27122466731817,1.05,0,471,0,1,0,0,1,1,100,300.2177357301116,170.81160613616723,1,1,0,1
121,24,400,108.2,166.53439118526876,-35.28325204970312,1.05,0,471,0,1,0,0,1,1,100,327.3660109937191,47.71035464480519,1,1,0,1
122,25,50,-4.96,20.206885427236557,-0.2206168481148758,1.05,0,53,0,1,0,0,1,1,100,45.875846832059324,0.25875032180920243,1,1,0,1
122,26,50,-4.96,15.615765579044819,-18.031078218948096,1.05,0,53,0,1,0,0,1,1,100,49.37625299906358,22.947892932139652,1,1,0,1
122,27,50,-4.96,20.515868303924798,-7.646572515554727,1.05,0,53,0,1,0,0,1,1,100,59.67913944507017,9.750955165363841,1,1,0,1
122,28,50,-4.96,20.184312047809364,0.10446497201919769,1.05,0,53,0,1,0,0,1,1,100,56.29081399878487,10.71797918880608,1,1,0,1
122,29,50,-4.96,13.3385677292943,-9.984616111405195,1.05,0,53,0,1,0,0,1,1,100,60.44771917397156,2.9616243112832237,1,1,0,1
122,30,50,-4.96,20.765576811134814,-9.859238007292152,1.05,0,53,0,1,0,0,1,1,100,64.67773061711341,15.573518062010407,1,1,0,1
123,31,155,31.79,57.31082863733172,-51.3775317654945,1.05,0,182,0,1,0,0,1,1,100,177.06477277493104,92.1000258208951,1,1,0,1
123,32,155,31.79,86.44494346156716,-43.096896631643176,1.05,0,182,0,1,0,0,1,1,100,169.38747850549407,81.36727923566941,1,1,0,1
123,33,350,71.78,183.5500560072251,38.9862605929375,1.05,0,412,0,1,0,0,1,1,100,320.15759764704853,65.08888110751286,1,1,0,1
201,34,10,0,7.863296971190721,-1.211380950640887,1.035,0,24,0,1,0,0,1,1,100,20.84861518908292,17.685907027050852,1,1,0,1
201,35,10,0,12.51854064874351,1.0987394414842129,1.035,0,24,0,1,0,0,1,1,100,18.854824217036366,14.378384235203267,1,1,0,1
201,36,76,14.1,34.64665812626481,-11.10836558858864,1.035,0,89,0,1,0,0,1,1,100,74.48896299544722,4.47146265391261,1,1,0,1
201,37,76,14.1,34.10780906584114,-24.67698197765276,1.035,0,89,0,1,0,0,1,1,100,69.83650534097106,19.51368107263,1,1,0,1
202,38,10,0,7.432391659356653,-1.8347897068597385,1.035,0,24,0,1,0,0,1,1,100,14.031922531314194,10.47558623201214,1,1,0,1
202,39,10,0,8.110528617631644,0.9768493585288534,1.035,0,24,0,1,0,0,1,1,100,17.619992152787745,13.052612298345196,1,1,0,1
202,40,76,7,24.26950738672167,-34.833312741015106,1.035,0,89,0,1,0,0,1,1,100,82.05238628629594,8.689843479134126,1,1,0,1
202,41,76,7,28.153632789384574,-13.799533381359645,1.035,0,89,0,1,0,0,1,1,100,57.481591899134216,6.24269077376218,1,1,0,1
207,42,80,17.2,56.54839949682355,-6.450642381794751,1.025,0,118,0,1,0,0,1,1,100,114.79887169320135,38.39281776687129,1,1,0,1
207,43,80,17.2,58.236938257701695,7.297998553141959,1.025,0,118,0,1,0,0,1,1,100,101.12372894305737,16.281774441013127,1,1,0,1
207,44,80,17.2,59.635555629618466,-9.048634165897965,1.025,0,118,0,1,0,0,1,1,100,124.49711392167954,40.514954836107776,1,1,0,1
213,45,95.1,40.7,75.87867324054241,-20.42488756030798,1.02,0,232,0,1,0,0,1,1,100,143.28657312025314,19.158410707539844,1,1,0,1
213,46,95.1,40.7,59.64473113045096,-23.651606921106584,1.02,0,232,0,1,0,0,1,1,100,222.82784086088648,112.88435687813207,1,1,0,1
213,47,95.1,40.7,74.43197448924184,-13.1435168646276,1.02,0,232,0,1,0,0,1,1,100,246.82358343047093,94.43864901387366,1,1,0,1
214,48,0,13.68,163.93056648783383,-12.105990368872881,0.98,0,100,0,1,0,0,1,1,100,0.0,0.0,1,1,0,1
215,49,12,0,5.271472318097949,-1.5420032635331147,1.014,0,14,0,1,0,0,1,1,100,8.40310429483652,3.4007367724150503,1,1,0,1
215,50,12,0,4.978575130552053,-2.8131667745299653,1.014,0,14,0,1,0,0,1,1,100,13.700381025485695,3.826296365819873,1,1,0,1
215,51,12,0,6.436918670497835,-0.1691802196204648,1.014,0,14,0,1,0,0,1,1,100,10.66516255605966,3.802254544235768,1,1,0,1
215,52,12,0,5.265221279952675,-2.371104181185366,1.014,0,14,0,1,0,0,1,1,100,15.057624087855219,6.262278368845582,1,1,0,1
215,53,12,0,4.717080474179237,-1.8305689576081932,1.014,0,14,0,1,0,0,1,1,100,12.146581861004234,4.032000938728453,1,1,0,1
215,54,155,0.048,77.37346055731177,-15.995708143804222,1.014,0,182,0,1,0,0,1,1,100,170.402269839542,70.70270116155734,1,1,0,1
216,55,155,25.22,64.852056581527,-60.41956555703655,1.017,0,182,0,1,0,0,1,1,100,193.54767314484343,73.56810629855609,1,1,0,1
218,56,400,137.4,219.40569038502872,19.284569253213704,1.05,0,471,0,1,0,0,1,1,100,442.09806073457,75.14376864768565,1,1,0,1
221,57,400,108.2,186.76024702377617,-13.226944461930543,1.05,0,471,0,1,0,0,1,1,100,435.7226996310056,214.3470098497347,1,1,0,1
222,58,50,-4.96,18.578157179802655,-2.2226210911758244,1.05,0,53,0,1,0,0,1,1,100,63.735052780248225,19.56314640585333,1,1,0,1
222,59,50,-4.96,11.850244835764169,-10.12726139705628,1.05,0,53,0,1,0,0,1,1,100,40.42071297997609,0.32798632979393716,1,1,0,1
222,60,50,-4.96,15.939477574080229,-10.933719319663943,1.05,0,53,0,1,0,0,1,1,100,59.55319194821641,7.510426745284349,1,1,0,1
222,61,50,-4.96,17.45190566778183,-6.793800459336492,1.05,0,53,0,1,0,0,1,1,100,42.11094171972945,9.78946350534069,1,1,0,1
222,62,50,-4.96,13.748578903079032,-7.763156424649058,1.05,0,53,0,1,0,0,1,1,100,56.10959090990946,18.858356005512178,1,1,0,1
222,63,50,-4.96,13.935294600576162,-10.982115847710519,1.05,0,53,0,1,0,0,1,1,100,42.08035056712106,8.276063594301169,1,1,0,1
223,64,155,31.79,68.90983891487122,-55.47068451624364,1.05,0,182,0,1,0,0,1,1,100,118.37631965894252,39.34382567737485,1,1,0,1
223,65,155,31.79,66.6258960403502,-24.809813878964633,1.05,0,182,0,1,0,0,1,1,100,145.3122686278075,45.10039382592076,1,1,0,1
223,66,350,71.78,147.17595277586952,-39.57015440450047,1.05,0,412,0,1,0,0,1,1,100,368.78305127611384,181.10832553403452,1,1,0,1
301,67,10,0,12.176831854041668,4.515421743504705,1.035,0,24,0,1,0,0,1,1,100,23.869677224196494,19.318690935950727,1,1,0,1
301,68,10,0,12.885908599011602,2.056415146216752,1.035,0,24,0,1,0,0,1,1,100,24.402622379362583,21.022723618829623,1,1,0,1
301,69,76,14.1,38.38516783481464,-14.781691587297246,1.035,0,89,0,1,0,0,1,1,100,74.19049381650984,13.369475689604876,1,1,0,1
301,70,76,14.1,34.89817848801613,-10.61879750317894,1.035,0,89,0,1,0,0,1,1,100,62.47271312940865,3.880642168541469,1,1,0,1
302,71,10,0,11.265928008593619,0.11327358707785606,1.035,0,24,0,1,0,0,1,1,100,21.80671149212867,16.453134685335684,1,1,0,1
302,72,10,0,10.050449857953936,-0.16532454220578074,1.035,0,24,0,1,0,0,1,1,100,18.774892882443964,13.760545670557768,1,1,0,1
302,73,76,7,25.57937607401982,-33.73668616078794,1.035,0,89,0,1,0,0,1,1,100,59.11667821966112,1.3910722780119085,1,1,0,1
302,74,76,7,37.3481289180927,-9.707162138307467,1.035,0,89,0,1,0,0,1,1,100,69.74003518931568,11.446601069419573,1,1,0,1
307,75,80,17.2,64.42228846717626,-10.94245736952871,1.025,0,118,0,1,0,0,1,1,100,122.93366651050745,69.56619619391859,1,1,0,1
307,76,80,17.2,59.02811354957521,-17.800249482505023,1.025,0,118,0,1,0,0,1,1,100,124.26160426344724,60.821556712035104,1,1,0,1
307,77,80,17.2,43.76829172298312,-2.9293662020936537,1.025,0,118,0,1,0,0,1,1,100,71.30050691310316,9.063138571800664,1,1,0,1
313,78,95.1,40.7,56.135064221918576,-18.755293272435672,1.02,0,232,0,1,0,0,1,1,100,169.00219754176214,75.75869531194911,1,1,0,1
313,79,95.1,40.7,65.3209892064333,-6.512677721679211,1.02,0,232,0,1,0,0,1,1,100,148.90718834330326,43.126273940864465,1,1,0,1
313,80,95.1,40.7,62.97763253003359,-19.97482930496335,1.02,0,232,0,1,0,0,1,1,100,158.14989481423981,13.621943559737417,1,1,0,1
314,81,0,13.68,211.53007162734866,-68.20418047485873,0.98,0,100,0,1,0,0,1,1,100,0.0,0.0,1,1,0,1
315,82,12,0,6.96305649932474,2.2254615467973062,1.014,0,14,0,1,0,0,1,1,100,15.40068760123104,8.521931462399664,1,1,0,1
315,83,12,0,4.998714967165142,0.27670462047681266,1.014,0,14,0,1,0,0,1,1,100,8.653294785507022,0.8282822986319651,1,1,0,1
315,84,12,0,5.321541502699256,-0.8078262627124788,1.014,0,14,0,1,0,0,1,1,100,10.35602513104677,1.6458202783439138,1,1,0,1
315,85,12,0,4.644798117969184,-0.12790711568668556,1.014,0,14,0,1,0,0,1,1,100,12.9288608757779,0.5897027659043665,1,1,0,1
315,86,12,0,6.6976178180426365,2.1012986859306704,1.014,0,14,0,1,0,0,1,1,100,14.530651520378889,6.880081230886283,1,1,0,1
315,87,155,0.048,57.86602131649851,-82.30478117289022,1.014,0,182,0,1,0,0,1,1,100,130.5337093907874,36.65474983430467,1,1,0,1
316,88,155,25.22,84.12263054773211,-20.701674286741763,1.017,0,182,0,1,0,0,1,1,100,147.8406559494324,33.439046882081314,1,1,0,1
318,89,400,137.4,217.07276100292802,29.459925999399275,1.05,0,471,0,1,0,0,1,1,100,478.5597552731633,98.10525578446686,1,1,0,1
321,90,400,108.2,218.48821572959426,-74.14113241946322,1.05,0,471,0,1,0,0,1,1,100,477.6820570789278,228.69368870742628,1,1,0,1
322,91,50,-4.96,13.602879675477743,-15.432581533025951,1.05,0,53,0,1,0,0,1,1,100,43.63405340118334,39.274325353741546,1,1,0,1
322,92,50,-4.96,12.55534789338708,-10.972889502160253,1.05,0,53,0,1,0,0,1,1,100,61.35481265373528,19.219105874653906,1,1,0,1
322,93,50,-4.96,20.188090397417547,-3.8683238447643795,1.05,0,53,0,1,0,0,1,1,100,41.64425059454515,4.593220597598702,1,1,0,1
322,94,50,-4.96,14.42449135929346,-10.801427819021049,1.05,0,53,0,1,0,0,1,1,100,51.631811722181745,20.218560460914905,1,1,0,1
322,95,50,-4.96,16.92102105990052,-8.001399877760559,1.05,0,53,0,1,0,0,1,1,100,49.217468418646604,1.568452853243798,1,1,0,1
322,96,50,-4.96,15.855387426912785,-10.773931200802327,1.05,0,53,0,1,0,0,1,1,100,50.41835645446554,11.74067932181061,1,1,0,1
323,97,155,31.79,96.34409286826849,3.166834340430796,1.05,0,182,0,1,0,0,1,1,100,182.57992053893395,73.86721608445514,1,1,0,1
323,98,155,31.79,103.72663689032197,-24.727276470977813,1.05,0,182,0,1,0,0,1,1,100,121.27199953841045,9.6748939113575,1,1,0,1
323,99,350,71.78,146.3679126673378,1.9111599575262517,1.05,0,412,0,1,0,0,1,1,100,413.15901253605256,161.55760996555904,1,1,0,1
0 / END OF GENERATOR DATA, BEGIN BRANCH DATA
101,102,1,0.003,0.014,0.461,210.0,231.6,240.0,0,0,0,0,1,1,0,1,1
101,103,1,0.055,0.211,0.057,210.0,249.6,264.0,0,0,0,0,1,1,0,1,1
101,105,1,0.022,0.085,0.023,210.0,249.6,264.0,0,0,0,0,1,1,0,1,1
102,104,1,0.033,0.127,0.034,210.0,249.6,264.0,0,0,0,0,1,1,0,1,1
102,106,1,0.05,0.192,0.052,210.0,249.6,264.0,0,0,0,0,1,1,0,1,1
103,109,1,0.031,0.119,0.032,210.0,249.6,264.0,0,0,0,0,1,1,0,1,1
104,109,1,0.027,0.104,0.028,210.0,249.6,264.0,0,0,0,0,1,1,0,1,1
105,110,1,0.023,0.088,0.024,210.0,249.6,264.0,0,0,0,0,1,1,0,1,1
106,110,1,0.014,0.061,2.459,210.0,231.6,240.0,0,0,0,0,1,1,0,1,1
107,108,1,0.016,0.061,0.017,210.0,249.6,264.0,0,0,0,0,1,1,0,1,1
107,203,1,0.042,0.161,0.044,210.0,249.6,264.0,0,0,0,0,1,1,0,1,1
108,109,1,0.043,0.165,0.045,210.0,249.6,264.0,0,0,0,0,1,1,0,1,1
108,110,1,0.043,0.165,0.045,210.0,249.6,264.0,0,0,0,0,1,1,0,1,1
111,113,1,0.006,0.048,0.1,600.0,720.0,750.0,0,0,0,0,1,1,0,1,1
111,114,1,0.005,0.042,0.088,600.0,720.0,750.0,0,0,0,0,1,1,0,1,1
112,113,1,0.006,0.048,0.1,600.0,720.0,750.0,0,0,0,0,1,1,0,1,1
112,123,1,0.012,0.097,0.203,600.0,720.0,750.0,0,0,0,0,1,1,0,1,1
113,123,1,0.011,0.087,0.182,600.0,720.0,750.0,0,0,0,0,1,1,0,1,1
113,215,1,0.01,0.075,0.158,600.0,720.0,750.0,0,0,0,0,1,1,0,1,1
114,116,1,0.005,0.059,0.082,600.0,720.0,750.0,0,0,0,0,1,1,0,1,1
115,116,1,0.002,0.017,0.036,600.0,720.0,750.0,0,0,0,0,1,1,0,1,1
115,121,1,0.006,0.049,0.103,600.0,720.0,750.0,0,0,0,0,1,1,0,1,1
115,121,2,0.006,0.049,0.103,600.0,720.0,750.0,0,0,0,0,1,1,0,1,1
115,124,1,0.007,0.052,0.109,600.0,720.0,750.0,0,0,0,0,1,1,0,1,1
116,117,1,0.003,0.026,0.055,600.0,720.0,750.0,0,0,0,0,1,1,0,1,1
116,119,1,0.003,0.023,0.049,600.0,720.0,750.0,0,0,0,0,1,1,0,1,1
117,118,1,0.002,0.014,0.03,600.0,720.0,750.0,0,0,0,0,1,1,0,1,1
117,122,1,0.014,0.105,0.221,600.0,720.0,750.0,0,0,0,0,1,1,0,1,1
118,121,1,0.003,0.026,0.055,600.0,720.0,750.0,0,0,0,0,1,1,0,1,1
118,121,2,0.003,0.026,0.055,600.0,720.0,750.0,0,0,0,0,1,1,0,1,1
119,120,1,0.005,0.04,0.083,600.0,720.0,750.0,0,0,0,0,1,1,0,1,1
119,120,2,0.005,0.04,0.083,600.0,720.0,750.0,0,0,0,0,1,1,0,1,1
120,123,1,0.003,0.022,0.046,600.0,720.0,750.0,0,0,0,0,1,1,0,1,1
120,123,2,0.003,0.022,0.046,600.0,720.0,750.0,0,0,0,0,1,1,0,1,1
121,122,1,0.009,0.068,0.142,600.0,720.0,750.0,0,0,0,0,1,1,0,1,1
123,217,1,0.01,0.074,0.155,600.0,720.0,750.0,0,0,0,0,1,1,0,1,1
201,202,1,0.003,0.014,0.461,210.0,231.6,240.0,0,0,0,0,1,1,0,1,1
201,203,1,0.055,0.211,0.057,210.0,249.6,264.0,0,0,0,0,1,1,0,1,1
201,205,1,0.022,0.085,0.023,210.0,249.6,264.0,0,0,0,0,1,1,0,1,1
202,204,1,0.033,0.127,0.034,210.0,249.6,264.0,0,0,0,0,1,1,0,1,1
202,206,1,0.05,0.192,0.052,210.0,249.6,264.0,0,0,0,0,1,1,0,1,1
203,209,1,0.031,0.119,0.032,210.0,249.6,264.0,0,0,0,0,1,1,0,1,1
204,209,1,0.027,0.104,0.028,210.0,249.6,264.0,0,0,0,0,1,1,0,1,1
205,210,1,0.023,0.088,0.024,210.0,249.6,264.0,0,0,0,0,1,1,0,1,1
206,210,1,0.014,0.061,2.459,210.0,231.6,240.0,0,0,0,0,1,1,0,1,1
207,208,1,0.016,0.061,0.017,210.0,249.6,264.0,0,0,0,0,1,1,0,1,1
208,209,1,0.043,0.165,0.045,210.0,249.6,264.0,0,0,0,0,1,1,0,1,1
208,210,1,0.043,0.165,0.045,210.0,249.6,264.0,0,0,0,0,1,1,0,1,1
211,213,1,0.006,0.048,0.1,600.0,720.0,750.0,0,0,0,0,1,1,0,1,1
211,214,1,0.005,0.042,0.088,600.0,720.0,750.0,0,0,0,0,1,1,0,1,1
212,213,1,0.006,0.048,0.1,600.0,720.0,750.0,0,0,0,0,1,1,0,1,1
212,223,1,0.012,0.097,0.203,600.0,720.0,750.0,0,0,0,0,1,1,0,1,1
213,223,1,0.011,0.087,0.182,600.0,720.0,750.0,0,0,0,0,1,1,0,1,1
214,216,1,0.005,0.059,0.082,600.0,720.0,750.0,0,0,0,0,1,1,0,1,1
215,216,1,0.002,0.017,0.036,600.0,720.0,750.0,0,0,0,0,1,1,0,1,1
215,221,1,0.006,0.049,0.103,600.0,720.0,750.0,0,0,0,0,1,1,0,1,1
215,221,2,0.006,0.049,0.103,600.0,720.0,750.0,0,0,0,0,1,1,0,1,1
215,224,1,0.007,0.052,0.109,600.0,720.0,750.0,0,0,0,0,1,1,0,1,1
216,217,1,0.003,0.026,0.055,600.0,720.0,750.0,0,0,0,0,1,1,0,1,1
216,219,1,0.003,0.023,0.049,600.0,720.0,750.0,0,0,0,0,1,1,0,1,1
217,218,1,0.002,0.014,0.03,600.0,720.0,750.0,0,0,0,0,1,1,0,1,1
217,222,1,0.014,0.105,0.221,600.0,720.0,750.0,0,0,0,0,1,1,0,1,1
218,221,1,0.003,0.026,0.055,600.0,720.0,750.0,0,0,0,0,1,1,0,1,1
218,221,2,0.003,0.026,0.055,600.0,720.0,750.0,0,0,0,0,1,1,0,1,1
219,220,1,0.005,0.04,0.083,600.0,720.0,750.0,0,0,0,0,1,1,0,1,1
219,220,2,0.005,0.04,0.083,600.0,720.0,750.0,0,0,0,0,1,1,0,1,1
220,223,1,0.003,0.022,0.046,600.0,720.0,750.0,0,0,0,0,1,1,0,1,1
220,223,2,0.003,0.022,0.046,600.0,720.0,750.0,0,0,0,0,1,1,0,1,1
221,222,1,0.009,0.068,0.142,600.0,720.0,750.0,0,0,0,0,1,1,0,1,1
301,302,1,0.003,0.014,0.461,210.0,231.6,240.0,0,0,0,0,1,1,0,1,1
301,303,1,0.055,0.211,0.057,210.0,249.6,264.0,0,0,0,0,1,1,0,1,1
301,305,1,0.022,0.085,0.023,210.0,249.6,264.0,0,0,0,0,1,1,0,1,1
302,304,1,0.033,0.127,0.034,210.0,249.6,264.0,0,0,0,0,1,1,0,1,1
302,306,1,0.05,0.192,0.052,210.0,249.6,264.0,0,0,0,0,1,1,0,1,1
303,309,1,0.031,0.119,0.032,210.0,249.6,264.0,0,0,0,0,1,1,0,1,1
304,309,1,0.027,0.104,0.028,210.0,249.6,264.0,0,0,0,0,1,1,0,1,1
305,310,1,0.023,0.088,0.024,210.0,249.6,264.0,0,0,0,0,1,1,0,1,1
306,310,1,0.014,0.061,2.459,210.0,231.6,240.0,0,0,0,0,1,1,0,1,1
307,308,1,0.016,0.061,0.017,210.0,249.6,264.0,0,0,0,0,1,1,0,1,1
308,309,1,0.043,0.165,0.045,210.0,249.6,264.0,0,0,0,0,1,1,0,1,1
308,310,1,0.043,0.165,0.045,210.0,249.6,264.0,0,0,0,0,1,1,0,1,1
311,313,1,0.006,0.048,0.1,600.0,720.0,750.0,0,0,0,0,1,1,0,1,1
311,314,1,0.005,0.042,0.088,600.0,720.0,750.0,0,0,0,0,1,1,0,1,1
312,313,1,0.006,0.048,0.1,600.0,720.0,750.0,0,0,0,0,1,1,0,1,1
312,323,1,0.012,0.097,0.203,600.0,720.0,750.0,0,0,0,0,1,1,0,1,1
313,323,1,0.011,0.087,0.182,600.0,720.0,750.0,0,0,0,0,1,1,0,1,1
314,316,1,0.005,0.059,0.082,600.0,720.0,750.0,0,0,0,0,1,1,0,1,1
315,316,1,0.002,0.017,0.036,600.0,720.0,750.0,0,0,0,0,1,1,0,1,1
315,321,1,0.006,0.049,0.103,600.0,720.0,750.0,0,0,0,0,1,1,0,1,1
315,321,2,0.006,0.049,0.103,600.0,720.0,750.0,0,0,0,0,1,1,0,1,1
315,324,1,0.007,0.052,0.109,600.0,720.0,750.0,0,0,0,0,1,1,0,1,1
316,317,1,0.003,0.026,0.055,600.0,720.0,750.0,0,0,0,0,1,1,0,1,1
316,319,1,0.003,0.023,0.049,600.0,720.0,750.0,0,0,0,0,1,1,0,1,1
317,318,1,0.002,0.014,0.03,600.0,720.0,750.0,0,0,0,0,1,1,0,1,1
317,322,1,0.014,0.105,0.221,600.0,720.0,750.0,0,0,0,0,1,1,0,1,1
318,223,1,0.013,0.104,0.218,600.0,720.0,750.0,0,0,0,0,1,1,0,1,1
318,321,1,0.003,0.026,0.055,600.0,720.0,750.0,0,0,0,0,1,1,0,1,1
318,321,2,0.003,0.026,0.055,600.0,720.0,750.0,0,0,0,0,1,1,0,1,1
319,320,1,0.005,0.04,0.083,600.0,720.0,750.0,0,0,0,0,1,1,0,1,1
319,320,2,0.005,0.04,0.083,600.0,720.0,750.0,0,0,0,0,1,1,0,1,1
320,323,1,0.003,0.022,0.046,600.0,720.0,750.0,0,0,0,0,1,1,0,1,1
320,323,2,0.003,0.022,0.046,600.0,720.0,750.0,0,0,0,0,1,1,0,1,1
321,322,1,0.009,0.068,0.142,600.0,720.0,750.0,0,0,0,0,1,1,0,1,1
323,325,1,0,0.009,0,866.4,1071.6,1071.6,0,0,0,0,1,1,0,1,1
0 / END OF BRANCH DATA, BEGIN TRANSFORMER DATA
  103 ,  124 , 0,  1 , 1, 1, 1, 0, 0, 2, '            ',  1 , 1, 1
   0.002000 ,  0.084000 ,  100.000000
   1.015000 , 0,  0.000000 ,  400.000000 ,  510.000000 ,  600.000000 , 0, 0,  1.10 ,  0.90 ,  1.10 ,  0.90 , 33, 0, 0, 0
   1.000000, 0
  109 ,  111 , 0,  1 , 1, 1, 1, 0, 0, 2, '            ',  1 , 1, 1
   0.002000 ,  0.084000 ,  100.000000
   1.030000 , 0,  0.000000 ,  400.000000 ,  510.000000 ,  600.000000 , 0, 0,  1.10 ,  0.90 ,  1.10 ,  0.90 , 33, 0, 0, 0
   1.000000, 0
  109 ,  112 , 0,  1 , 1, 1, 1, 0, 0, 2, '            ',  1 , 1, 1
   0.002000 ,  0.084000 ,  100.000000
   1.030000 , 0,  0.000000 ,  400.000000 ,  510.000000 ,  600.000000 , 0, 0,  1.10 ,  0.90 ,  1.10 ,  0.90 , 33, 0, 0, 0
   1.000000, 0
  110 ,  111 , 0,  1 , 1, 1, 1, 0, 0, 2, '            ',  1 , 1, 1
   0.002000 ,  0.084000 ,  100.000000
   1.015000 , 0,  0.000000 ,  400.000000 ,  510.000000 ,  600.000000 , 0, 0,  1.10 ,  0.90 ,  1.10 ,  0.90 , 33, 0, 0, 0
   1.000000, 0
  110 ,  112 , 0,  1 , 1, 1, 1, 0, 0, 2, '            ',  1 , 1, 1
   0.002000 ,  0.084000 ,  100.000000
   1.015000 , 0,  0.000000 ,  400.000000 ,  510.000000 ,  600.000000 , 0, 0,  1.10 ,  0.90 ,  1.10 ,  0.90 , 33, 0, 0, 0
   1.000000, 0
  203 ,  224 , 0,  1 , 1, 1, 1, 0, 0, 2, '            ',  1 , 1, 1
   0.002000 ,  0.084000 ,  100.000000
   1.015000 , 0,  0.000000 ,  400.000000 ,  510.000000 ,  600.000000 , 0, 0,  1.10 ,  0.90 ,  1.10 ,  0.90 , 33, 0, 0, 0
   1.000000, 0
  209 ,  211 , 0,  1 , 1, 1, 1, 0, 0, 2, '            ',  1 , 1, 1
   0.002000 ,  0.084000 ,  100.000000
   1.030000 , 0,  0.000000 ,  400.000000 ,  510.000000 ,  600.000000 , 0, 0,  1.10 ,  0.90 ,  1.10 ,  0.90 , 33, 0, 0, 0
   1.000000, 0
  209 ,  212 , 0,  1 , 1, 1, 1, 0, 0, 2, '            ',  1 , 1, 1
   0.002000 ,  0.084000 ,  100.000000
   1.030000 , 0,  0.000000 ,  400.000000 ,  510.000000 ,  600.000000 , 0, 0,  1.10 ,  0.90 ,  1.10 ,  0.90 , 33, 0, 0, 0
   1.000000, 0
  210 ,  211 , 0,  1 , 1, 1, 1, 0, 0, 2, '            ',  1 , 1, 1
   0.002000 ,  0.084000 ,  100.000000
   1.015000 , 0,  0.000000 ,  400.000000 ,  510.000000 ,  600.000000 , 0, 0,  1.10 ,  0.90 ,  1.10 ,  0.90 , 33, 0, 0, 0
   1.000000, 0
  210 ,  212 , 0,  1 , 1, 1, 1, 0, 0, 2, '            ',  1 , 1, 1
   0.002000 ,  0.084000 ,  100.000000
   1.015000 , 0,  0.000000 ,  400.000000 ,  510.000000 ,  600.000000 , 0, 0,  1.10 ,  0.90 ,  1.10 ,  0.90 , 33, 0, 0, 0
   1.000000, 0
  303 ,  324 , 0,  1 , 1, 1, 1, 0, 0, 2, '            ',  1 , 1, 1
   0.002000 ,  0.084000 ,  100.000000
   1.015000 , 0,  0.000000 ,  400.000000 ,  510.000000 ,  600.000000 , 0, 0,  1.10 ,  0.90 ,  1.10 ,  0.90 , 33, 0, 0, 0
   1.000000, 0
  309 ,  311 , 0,  1 , 1, 1, 1, 0, 0, 2, '            ',  1 , 1, 1
   0.002000 ,  0.084000 ,  100.000000
   1.030000 , 0,  0.000000 ,  400.000000 ,  510.000000 ,  600.000000 , 0, 0,  1.10 ,  0.90 ,  1.10 ,  0.90 , 33, 0, 0, 0
   1.000000, 0
  309 ,  312 , 0,  1 , 1, 1, 1, 0, 0, 2, '            ',  1 , 1, 1
   0.002000 ,  0.084000 ,  100.000000
   1.030000 , 0,  0.000000 ,  400.000000 ,  510.000000 ,  600.000000 , 0, 0,  1.10 ,  0.90 ,  1.10 ,  0.90 , 33, 0, 0, 0
   1.000000, 0
  310 ,  311 , 0,  1 , 1, 1, 1, 0, 0, 2, '            ',  1 , 1, 1
   0.002000 ,  0.084000 ,  100.000000
   1.015000 , 0,  0.000000 ,  400.000000 ,  510.000000 ,  600.000000 , 0, 0,  1.10 ,  0.90 ,  1.10 ,  0.90 , 33, 0, 0, 0
   1.000000, 0
  310 ,  312 , 0,  1 , 1, 1, 1, 0, 0, 2, '            ',  1 , 1, 1
   0.002000 ,  0.084000 ,  100.000000
   1.015000 , 0,  0.000000 ,  400.000000 ,  510.000000 ,  600.000000 , 0, 0,  1.10 ,  0.90 ,  1.10 ,  0.90 , 33, 0, 0, 0
   1.000000, 0
0 / END OF TRANSFORMER DATA, BEGIN AREA DATA
0 / END OF AREA DATA, BEGIN TWO-TERMINAL DC DATA
0 / END OF TWO-TERMINAL DC DATA, BEGIN VSC DC LINE DATA
0 / END OF VSC DC LINE DATA, BEGIN SWITCHED SHUNT DATA
0 / END OF SWITCHED SHUNT DATA, BEGIN IMPEDANCE CORRECTION DATA
0 / END OF IMPEDANCE CORRECTION DATA, BEGIN MULTI-TERMINAL DC DATA
0 / END OF MULTI-TERMINAL DC DATA, BEGIN MULTI-SECTION LINE DATA
0 / END OF MULTI-SECTION LINE DATA, BEGIN ZONE DATA
0 / END OF ZONE DATA, BEGIN INTER-AREA TRANSFER DATA
0 / END OF INTER-AREA TRANSFER DATA, BEGIN OWNER DATA
0 / END OF OWNER DATA, BEGIN FACTS CONTROL DEVICE DATA
0 / END OF FACTS CONTROL DEVICE DATA
0 / END OF SWITCHED SHUNT DATA, BEGIN GNE DATA
0 / END OF GNE DATA, BEGIN INDUCTION MACHINE DATA
0 / END OF INDUCTION MACHINE DATA
Q 
